1

                    Execution started at 20160629.115708         



                    ---------------------------------------
                                     SWAN
                    SIMULATION OF WAVES IN NEAR SHORE AREAS
                             VERSION NUMBER 41.10               
                    ---------------------------------------


    
 $*************HEADING****************************************
    
 $
    
 PROJ 'a11refr' 'A11'
    
 $
    
 $ PURPOSE OF TEST: Test of the refraction formulation
    
 $
    
 $ --|--------------------------------------------------------------|--
    
 $   | This SWAN input file is part of the bench mark tests for     |
    
 $   | SWAN.                                                        |
    
 $ --|--------------------------------------------------------------|--
    
 $
    
 $***********MODEL INPUT**************************************
    
 $
    
 CGRID 0. 0. 0. 20000. 4000. 25 100 SECTOR 80. 130. 100 0.05 0.25 40
 Resolution in sigma-space: df/f =  0.0411
    
 $
    
 INPGRID BOTTOM 0. 0. 0. 1 1 20000. 4000.
    
 READINP BOTTOM 1. 'a11refr.bot'  1 0 FREE
    
 $
    
 BOU SHAPE GAUSS 0.01 PEAK DSPR POWER
    
 BOUN SIDE S CCW CON PAR 1. 10. 120. 500.
    
 $
    
 OFF QUAD
    
 OFF BREA
    
 OFF WCAP
    
 $
    
 $************ OUTPUT REQUESTS *************************
    
 $
    
 CURVE 'CTA11' 10000. 0.  100  10000. 4000.
    
 TABLE 'CTA11' HEAD DIST HS TM01 DIR DEP RTP DSPR
    
 TABLE 'CTA11' NOHEAD 'a11ref01.tab' DIST HS TM01 DIR DEP RTP
    
 $
    
 POINTS 'loc' FILE   'a11refr.loc'
    
 SPEC   'loc' SPEC1D 'a11ref01.spc'
    
 TABLE  'loc' HEAD   'a11ref01.tbl' HS RTP TM01 TM02 FSPR
    
 $
    
 TEST 1,0
    
 COMPUTE
 ** Warning          : Limiter is de-activated in case of no quadruplets

----------------------------------------------------------------
                  COMPUTATIONAL PART OF SWAN
----------------------------------------------------------------

 Gridresolution       : MXC              26 MYC            101
                      : MCGRD          2627
                      : MSC              41 MDC            101
                      : MTC               1
                      : NSTATC            0 ITERMX          50
 Propagation flags    : ITFRE             1 IREFR            1
 Source term flags    : IBOT              0 ISURF            0
                      : IWCAP             0 IWIND            0
                      : ITRIAD            0 IQUAD            0
                      : IVEG              0 ITURBV           0
                      : IMUD              0
 Spatial step         : DX       0.8000E+03 DY      0.4000E+02
 Spectral bin         : df/f     0.4106E-01 DDIR    0.5000E+00
 Physical constants   : GRAV     0.9810E+01 RHO     0.1025E+04
 Wind input           : WSPEED   0.0000E+00 DIR     0.0000E+00
 Tail parameters      : E(f)     0.4000E+01 E(k)    0.2500E+01
                      : A(f)     0.5000E+01 A(k)    0.3000E+01
 Accuracy parameters  : DREL     0.1000E-01 NPNTS   0.9950E+02
                      : DHABS    0.5000E-02 CURVAT  0.5000E-02
                      : GRWMX    0.1000E+21
 Drying/flooding      : LEVEL    0.0000E+00 DEPMIN  0.5000E-01
 The Cartesian convention for wind and wave directions is used
 Scheme for geographic propagation is SORDUP
 Scheme geogr. space  : PROPSC            2 ICMAX            7
 Scheme spectral space: CSS      0.5000E+00 CDD     0.5000E+00
 Current is off
 Quadruplets is off
 Triads is off
 Bottom friction is off
 Vegetation is off
 Turbulence is off
 Fluid mud is off
 Whitecapping is off
 Surf breaking is off
 Set-up is off
 Diffraction is off
 Janssen (`89,`90)    : ALPHA    0.1000E-01 KAPPA   0.4100E+00
 Janssen (`89,`90)    : RHOA     0.1280E+01 RHOW    0.1025E+04
 
 1st and 2nd gen. wind: CF10     0.1880E+03 CF20    0.5900E+00
                      : CF30     0.1200E+00 CF40    0.2500E+03
                      : CF50     0.2300E-02 CF60   -0.2230E+00
                      : CF70     0.0000E+00 CF80   -0.5600E+00
                      : RHOAW    0.1249E-02 EDMLPM  0.3600E-02
                      : CDRAG    0.1230E-02 UMIN    0.1000E+01
                      : LIM_PM   0.1300E+00
 
 iteration    1; sweep 1
 iteration    1; sweep 2
 iteration    1; sweep 3
 iteration    1; sweep 4
 use of rescaling in  85.65 % of wet points with maximum in spectral space = 1294
 not possible to compute, first iteration

 iteration    2; sweep 1
 iteration    2; sweep 2
 iteration    2; sweep 3
 iteration    2; sweep 4
 use of rescaling in  85.65 % of wet points with maximum in spectral space = 1360
 accuracy OK in  98.97 % of wet grid points ( 99.50 % required)

 iteration    3; sweep 1
 iteration    3; sweep 2
 iteration    3; sweep 3
 iteration    3; sweep 4
 use of rescaling in  85.65 % of wet points with maximum in spectral space = 1360
 accuracy OK in   1.00 % of wet grid points ( 99.50 % required)

 iteration    4; sweep 1
 iteration    4; sweep 2
 iteration    4; sweep 3
 iteration    4; sweep 4
 use of rescaling in  85.65 % of wet points with maximum in spectral space = 1360
 accuracy OK in  99.97 % of wet grid points ( 99.50 % required)

 
%
%
% Run:A11   Table:CTA11             SWAN version:41.10
%
%       Dist          Hsig          Tm01          Dir           Depth         RTpeak        Dspr     
%       [m]           [m]           [sec]         [degr]        [m]           [sec]         [degr]   
%
           0.       1.00012       10.0000       120.000       20.0000       10.0918        2.5585 
          40.       0.99999       10.0006       119.884       19.8000       10.0918        2.5552 
          80.       0.99989       10.0012       119.767       19.6000       10.0918        2.5497 
         120.       0.99980       10.0019       119.649       19.4000       10.0918        2.5437 
         160.       0.99973       10.0025       119.530       19.2000       10.0918        2.5377 
         200.       0.99969       10.0032       119.410       19.0000       10.0918        2.5312 
         240.       0.99967       10.0038       119.289       18.8000       10.0918        2.5247 
         280.       0.99967       10.0045       119.166       18.6000       10.0918        2.5188 
         320.       0.99970       10.0051       119.042       18.4000       10.0918        2.5123 
         360.       0.99975       10.0058       118.917       18.2000       10.0918        2.5060 
         400.       0.99983       10.0064       118.791       18.0000       10.0918        2.4993 
         440.       0.99993       10.0071       118.663       17.8000       10.0918        2.4932 
         480.       1.00006       10.0078       118.534       17.6000       10.0918        2.4866 
         520.       1.00022       10.0085       118.403       17.4000       10.0918        2.4803 
         560.       1.00040       10.0092       118.272       17.2000       10.0918        2.4739 
         600.       1.00062       10.0099       118.138       17.0000       10.0918        2.4679 
         640.       1.00086       10.0106       118.004       16.8000       10.0918        2.4609 
         680.       1.00114       10.0113       117.868       16.6000       10.0918        2.4546 
         720.       1.00145       10.0120       117.730       16.4000       10.0918        2.4481 
         760.       1.00179       10.0127       117.591       16.2000       10.0918        2.4415 
         800.       1.00216       10.0134       117.451       16.0000       10.0918        2.4348 
         840.       1.00257       10.0142       117.309       15.8000       10.0918        2.4286 
         880.       1.00302       10.0149       117.165       15.6000       10.0918        2.4216 
         920.       1.00350       10.0156       117.020       15.4000       10.0918        2.4151 
         960.       1.00403       10.0164       116.874       15.2000       10.0918        2.4079 
        1000.       1.00459       10.0171       116.725       15.0000       10.0918        2.4009 
        1040.       1.00519       10.0179       116.575       14.8000       10.0918        2.3948 
        1080.       1.00584       10.0186       116.424       14.6000       10.0918        2.3871 
        1120.       1.00653       10.0194       116.271       14.4000       10.0918        2.3805 
        1160.       1.00727       10.0201       116.115       14.2000       10.0918        2.3734 
        1200.       1.00805       10.0209       115.959       14.0000       10.0918        2.3667 
        1240.       1.00888       10.0217       115.800       13.8000       10.0918        2.3588 
        1280.       1.00976       10.0225       115.640       13.6000       10.0918        2.3521 
        1320.       1.01070       10.0233       115.477       13.4000       10.0918        2.3447 
        1360.       1.01169       10.0241       115.313       13.2000       10.0918        2.3375 
        1400.       1.01273       10.0248       115.147       13.0000       10.0918        2.3299 
        1440.       1.01383       10.0256       114.979       12.8000       10.0918        2.3222 
        1480.       1.01499       10.0264       114.809       12.6000       10.0918        2.3148 
        1520.       1.01622       10.0273       114.637       12.4000       10.0918        2.3070 
        1560.       1.01751       10.0281       114.462       12.2000       10.0918        2.2991 
        1600.       1.01887       10.0289       114.286       12.0000       10.0918        2.2914 
        1640.       1.02029       10.0297       114.107       11.8000       10.0918        2.2836 
        1680.       1.02180       10.0305       113.927       11.6000       10.0918        2.2759 
        1720.       1.02337       10.0314       113.743       11.4000       10.0918        2.2676 
        1760.       1.02503       10.0322       113.558       11.2000       10.0918        2.2593 
        1800.       1.02677       10.0330       113.370       11.0000       10.0918        2.2505 
        1840.       1.02859       10.0339       113.180       10.8000       10.0918        2.2423 
        1880.       1.03050       10.0347       112.987       10.6000       10.0918        2.2337 
        1920.       1.03251       10.0356       112.791       10.4000       10.0918        2.2251 
        1960.       1.03462       10.0364       112.593       10.2000       10.0918        2.2160 
        2000.       1.03683       10.0373       112.393       10.0000       10.0918        2.2070 
        2040.       1.03914       10.0381       112.189        9.8000       10.0918        2.1979 
        2080.       1.04157       10.0390       111.983        9.6000       10.0918        2.1883 
        2120.       1.04411       10.0398       111.773        9.4000       10.0918        2.1786 
        2160.       1.04678       10.0407       111.561        9.2000       10.0918        2.1698 
        2200.       1.04958       10.0416       111.345        9.0000       10.0918        2.1591 
        2240.       1.05252       10.0424       111.127        8.8000       10.0918        2.1500 
        2280.       1.05559       10.0433       110.905        8.6000       10.0918        2.1394 
        2320.       1.05882       10.0442       110.680        8.4000       10.0918        2.1296 
        2360.       1.06221       10.0451       110.451        8.2000       10.0918        2.1185 
        2400.       1.06577       10.0459       110.218        8.0000       10.0918        2.1078 
        2440.       1.06951       10.0468       109.982        7.8000       10.0918        2.0962 
        2480.       1.07344       10.0477       109.742        7.6000       10.0918        2.0853 
        2520.       1.07757       10.0486       109.498        7.4000       10.0918        2.0735 
        2560.       1.08191       10.0495       109.250        7.2000       10.0918        2.0624 
        2600.       1.08648       10.0504       108.998        7.0000       10.0918        2.0506 
        2640.       1.09129       10.0513       108.741        6.8000       10.0918        2.0375 
        2680.       1.09636       10.0521       108.479        6.6000       10.0918        2.0251 
        2720.       1.10170       10.0530       108.213        6.4000       10.0918        2.0126 
        2760.       1.10734       10.0539       107.942        6.2000       10.0918        1.9991 
        2800.       1.11330       10.0548       107.665        6.0000       10.0918        1.9857 
        2840.       1.11961       10.0557       107.383        5.8000       10.0918        1.9721 
        2880.       1.12629       10.0566       107.095        5.6000       10.0918        1.9580 
        2920.       1.13336       10.0575       106.801        5.4000       10.0918        1.9435 
        2960.       1.14088       10.0584       106.501        5.2000       10.0918        1.9289 
        3000.       1.14887       10.0593       106.194        5.0000       10.0918        1.9135 
        3040.       1.15738       10.0602       105.880        4.8000       10.0918        1.8983 
        3080.       1.16646       10.0611       105.559        4.6000       10.0918        1.8819 
        3120.       1.17616       10.0620       105.230        4.4000       10.0918        1.8650 
        3160.       1.18657       10.0629       104.892        4.2000       10.0918        1.8479 
        3200.       1.19774       10.0638       104.545        4.0000       10.0918        1.8311 
        3240.       1.20978       10.0647       104.189        3.8000       10.0918        1.8137 
        3280.       1.22278       10.0656       103.822        3.6000       10.0918        1.7944 
        3320.       1.23688       10.0665       103.445        3.4000       10.0918        1.7765 
        3360.       1.25223       10.0673       103.055        3.2000       10.0918        1.7561 
        3400.       1.26901       10.0682       102.652        3.0000       10.0918        1.7359 
        3440.       1.28745       10.0691       102.234        2.8000       10.0918        1.7145 
        3480.       1.30782       10.0700       101.800        2.6000       10.0918        1.6934 
        3520.       1.33049       10.0709       101.349        2.4000       10.0918        1.6709 
        3560.       1.35591       10.0718       100.877        2.2000       10.0918        1.6475 
        3600.       1.38469       10.0727       100.383        2.0000       10.0918        1.6232 
        3640.       1.41763       10.0736        99.862        1.8000       10.0918        1.5993 
        3680.       1.45587       10.0745        99.311        1.6000       10.0918        1.5724 
        3720.       1.50103       10.0754        98.722        1.4000       10.0918        1.5453 
        3760.       1.55559       10.0763        98.089        1.2000       10.0918        1.5167 
        3800.       1.62352       10.0772        97.397        1.0000       10.0918        1.4878 
        3840.       1.71178       10.0781        96.628        0.8000       10.0918        1.4577 
        3880.       1.83418       10.0790        95.747        0.6000       10.0918        1.4282 
        3920.       2.02402       10.0799        94.676        0.4000       10.0918        1.3999 
        3960.       2.40217       10.0807        94.676        0.2000       10.0918        1.4002 
        4000.      -9.00000       -9.0000      -999.000      -99.0000       -9.0000       -9.0000 
    
 STOP
